Circuit: * Z:\home\danieltyukov\workspace\tud\tud-microsystems-design-and-modeling\unit1-cross-domain-modeling\RLC_2026.asc

.step zeta=0.1
.step zeta=1
.step zeta=1.5

Date: Sun May 10 23:08:17 2026
Total elapsed time: 0.154 seconds.

tnom = 27
temp = 27
method = trap
totiter = 0
traniter = 0
tranpoints = 0
accept = 0
rejected = 0
matrix size = 4
fillins = 1
solver = Normal

