Circuit: * Z:\home\danieltyukov\workspace\tud\tud-microsystems-design-and-modeling\unit1-cross-domain-modeling\thermal_example.asc

Limiting rise time of source v1 to 1.98952e-014
Limiting fall time of source v1 to 1.98952e-014
Limiting rise time of source v2 to 1.98952e-014
Limiting fall time of source v2 to 1.98952e-014
.OP point found by inspection.

Date: Sun May 10 23:14:47 2026
Total elapsed time: 0.076 seconds.

tnom = 27
temp = 27
method = modified trap
totiter = 80
traniter = 80
tranpoints = 41
accept = 41
rejected = 0
matrix size = 6
fillins = 0
solver = Normal
Matrix Compiler1: 110 bytes object code size
Matrix Compiler2: off
